*MODEL INPUT FILE            A    96     1    96    96     0
*FILES              
MODEL          MZCER048
FILEX          UFGA0002.SNX                                                                                 
FILEA          UFGA0002.SNA                                                                                 
FILET          UFGA0002.SNT                                                                                 
SPECIES        MZCER048.SPE                                                                                 
ECOTYPE        MZCER048.ECO                                                                                 
CULTIVAR       MZCER048.CUL                                                                                 
PESTS          MZCER048.PST ////Users/gustavovisentini/dssat/Pest/                                          
SOILS          SOIL.SOL                                                                                     
WEATHERW       WSTATION.WTH                                                                                 
OUTPUT         OVERVIEW
*SIMULATION CONTROL 
                   1     1     S 2018000   215  Rainfed                 
                   Y     Y     N     N     N     N     N     N     M
                   M     M     E     R     S     C     R     1     P     S     2     D     0
                   R     A     D     N     M
                   N     N     Y     1     N     N     N     N     N     N     N     N     N
!AUTOMATIC MANAGEM  
                   -99     -99   10.  100.   30.   40.   10.
                 30.   50.  100. GS000 IR001  10.0 1.000
                 30.   10.   50. FE001 GS000
                100.     1   20.
                     0     -99  100.    0.
*EXP.DETAILS        
  1UFGA0002 SN X                                                           
*TREATMENTS         
 96 1 1 0 Jun_3_400N_Rainfed       
*CULTIVARS          
   MZ IB0068 PIO 3475        
*FIELDS             
   Generic  WSTATION   0.0  -99.   -99  -99. 100.0   -99 tLoam  -99. US02489372-99.00 -99.0
    -99.0000000000  -99.0000000000   -99.000               1.0  100.   1.0 -99.0   -99     1
*INITIAL CONDITIONS 
   MZ    2018000   100     0  0.00  0.00  -9.0   300  6.00  0.00   10.    0.
      5. 0.314 0.010 0.010
     15. 0.325 0.010 0.010
     30. 0.339 0.010 0.010
     45. 0.351 0.010 0.010
     60. 0.351 0.010 0.010
     80. 0.351 0.010 0.010
    100. 0.351 0.010 0.010
    150. 0.341 0.010 0.010
    200. 0.341 0.010 0.010
*PLANTING DETAILS   
   2018174     -99   8.0   8.0     S     R   76.  -99.   5.0  -99.  -99. -99.0 -99.0 -99.0
*IRRIGATION         
   1.000    0.    0.    0. GS000 IR001   0.0
*FERTILIZERS        
         0 FE005 AP002    5.  200.  -99.  -99.  -99.  -99.   -99
        30 FE005 AP001    1.  200.  -99.  -99.  -99.  -99.   -99
*RESIDUES           
*CHEMICALS          
*TILLAGE            
*ENVIRONMENT        
*HARVEST            
*SOIL               
 US02489372    USA    Si tLoam  -99.    ISRIC soilgrids + HC27                         
 -99              US      41.958 -92.291     HC_GEN0010                                    
 BK     0.10   6.0  0.50   75.  1.00  1.00 SA001 SA001 SA001 -99  
    5.       0.155 0.314 0.419 1.000 0.340  1.45 2.710  25.5  51.7 -99.0 0.120  6.40-99.00 32.60-99.00
   15.       0.167 0.325 0.425 0.850 0.300  1.47 2.300  27.5  50.8 -99.0 0.090  6.48-99.00 28.50-99.00
   30.       0.182 0.339 0.434 0.700 0.250  1.50 1.750  30.2  49.7 -99.0 0.070  6.57-99.00 27.60-99.00
   45.       0.197 0.351 0.442 0.500 0.210  1.55 1.120  32.8  48.3 -99.0 0.060  6.68-99.00 28.90-99.00
   60.       0.197 0.351 0.442 0.500 0.210  1.55 1.120  32.8  48.3 -99.0 0.060  6.68-99.00 28.90-99.00
   80.       0.198 0.351 0.442 0.380 0.210  1.61 0.650  32.9  47.8 -99.0 0.050  6.81-99.00 29.00-99.00
  100.       0.198 0.351 0.442 0.380 0.210  1.61 0.650  32.9  47.8 -99.0 0.050  6.81-99.00 29.00-99.00
  150.       0.187 0.341 0.435 0.200 0.240  1.66 0.370  31.1  47.8 -99.0 0.040  7.00-99.00 28.90-99.00
  200.       0.187 0.341 0.435 0.200 0.240  1.66 0.370  31.1  47.8 -99.0 0.040  7.00-99.00 28.90-99.00
                    
    5.-99.00 -99.0 -99.0 -99.0 -99.0 -99.0 -99.0 -99.0 -99.0 -99.0-99.00 -99.0 -99.0 -99.0 -99.0 -99.0  -99.  -99.
   15.-99.00 -99.0 -99.0 -99.0 -99.0 -99.0 -99.0 -99.0 -99.0 -99.0-99.00 -99.0 -99.0 -99.0 -99.0 -99.0  -99.  -99.
   30.-99.00 -99.0 -99.0 -99.0 -99.0 -99.0 -99.0 -99.0 -99.0 -99.0-99.00 -99.0 -99.0 -99.0 -99.0 -99.0  -99.  -99.
   45.-99.00 -99.0 -99.0 -99.0 -99.0 -99.0 -99.0 -99.0 -99.0 -99.0-99.00 -99.0 -99.0 -99.0 -99.0 -99.0  -99.  -99.
   60.-99.00 -99.0 -99.0 -99.0 -99.0 -99.0 -99.0 -99.0 -99.0 -99.0-99.00 -99.0 -99.0 -99.0 -99.0 -99.0  -99.  -99.
   80.-99.00 -99.0 -99.0 -99.0 -99.0 -99.0 -99.0 -99.0 -99.0 -99.0-99.00 -99.0 -99.0 -99.0 -99.0 -99.0  -99.  -99.
  100.-99.00 -99.0 -99.0 -99.0 -99.0 -99.0 -99.0 -99.0 -99.0 -99.0-99.00 -99.0 -99.0 -99.0 -99.0 -99.0  -99.  -99.
  150.-99.00 -99.0 -99.0 -99.0 -99.0 -99.0 -99.0 -99.0 -99.0 -99.0-99.00 -99.0 -99.0 -99.0 -99.0 -99.0  -99.  -99.
  200.-99.00 -99.0 -99.0 -99.0 -99.0 -99.0 -99.0 -99.0 -99.0 -99.0-99.00 -99.0 -99.0 -99.0 -99.0 -99.0  -99.  -99.
                    
    5.-99.00-99.00-99.00-99.00
   15.-99.00-99.00-99.00-99.00
   30.-99.00-99.00-99.00-99.00
   45.-99.00-99.00-99.00-99.00
   60.-99.00-99.00-99.00-99.00
   80.-99.00-99.00-99.00-99.00
  100.-99.00-99.00-99.00-99.00
  150.-99.00-99.00-99.00-99.00
  200.-99.00-99.00-99.00-99.00
*CULTIVAR           
IB0068 PIO 3475         IB0001  200.0 0.700 750.0 907.0  9.00 38.90
